Version 4
SHEET 1 880 680
WIRE 1029 1086 691 1089
WIRE 1029 1086 365 1039
WIRE 1029 1086 927 234
WIRE 691 1089 365 1039
