Version 4
SHEET 1 880 680
WIRE 901 435 611 971
WIRE 901 435 612 443
WIRE 901 435 896 996
WIRE 901 435 917 256
WIRE 611 971 612 443
WIRE 611 971 896 996
WIRE 611 971 917 256
WIRE 611 971 617 260
WIRE 612 443 617 260
WIRE 896 996 917 256
WIRE 917 256 617 260
