Version 4
SHEET 1 880 680
SYMBOL res 537 513 R90
SYMBOL res 563 648 R90
SYMBOL res 450 950 R90
WIRE 425 524 461 1130
WIRE 425 524 431 665
WIRE 703 528 705 1141
WIRE 703 528 709 656
WIRE 705 1141 461 1130
WIRE 705 1141 709 656
WIRE 461 1130 431 665
WIRE 431 665 709 656
WIRE 425 524 703 528
