Version 4
SHEET 1 880 680
SYMBOL res 2144 1522 R0
SYMATTR InstName R1
WIRE 2160 976 2160 2080
WIRE 1216 2128 2160 2080
WIRE 1216 976 2160 976
WIRE 1216 976 1216 2128
