Version 4
SHEET 1 880 680
SYMBOL res 537 513 R90
SYMBOL res 563 648 R90
SYMBOL res 450 950 R90
WIRE 425 524 703 524
WIRE 425 524 425 1141
WIRE 425 524 425 665
WIRE 703 524 703 1141
WIRE 703 524 703 665
WIRE 425 1141 703 1141
WIRE 703 665 703 1141
WIRE 425 665 425 1141
WIRE 425 665 703 665
