Version 4
SHEET 1 880 680
SYMBOL voltage 1184 1274 R0
SYMATTR InstName V1
WIRE 1248 1936 3152 1824
WIRE 1184 1072 1248 1936
WIRE 1184 1072 2944 976
