Version 4
SHEET 1 880 680
SYMBOL res 580 144 R90
SYMATTR InstName R1
SYMBOL res 976 512 R0
SYMATTR InstName R2
SYMBOL voltage 352 227 R0
SYMATTR InstName V1
SYMBOL cap 800 305 R0
SYMATTR InstName C1
SYMATTR InstName C2
SYMBOL ind 800 518 R0
SYMATTR InstName L1
SYMATTR InstName L2
WIRE 352 160 352 608
WIRE 352 160 816 160
WIRE 816 368 816 608
WIRE 352 608 816 608
WIRE 816 160 816 608
WIRE 816 608 992 608
WIRE 816 368 992 368
WIRE 816 160 816 368
WIRE 992 368 992 608
WIRE 352 608 992 608
