Version 4
SHEET 1 880 680
SYMBOL res 1296 640 R0
SYMATTR InstName R1
SYMBOL res 1488 655 R0
SYMATTR InstName R2
SYMBOL res 824 464 R90
SYMATTR InstName R3
SYMATTR InstName R4
SYMBOL voltage 416 512 R0
SYMATTR InstName V1
WIRE 416 480 416 816
WIRE 416 480 1504 480
WIRE 416 480 1312 480
WIRE 416 816 1504 816
WIRE 1504 480 1504 816
WIRE 1312 816 1504 816
WIRE 416 816 1312 816
WIRE 1312 480 1504 480
WIRE 1312 480 1312 816
