Version 4
SHEET 1 880 680
SYMBOL res 1406 1168 R90
SYMATTR InstName R1
SYMBOL voltage 592 1569 R0
SYMATTR InstName V1
SYMBOL cap 1936 1800 R0
SYMATTR InstName C1
WIRE 592 1184 592 2320
WIRE 592 2320 2016 2320
WIRE 592 1184 1952 1280
WIRE 1952 1280 2016 2320
