Version 4
SHEET 1 880 680
WIRE 832 832 1904 832
WIRE 832 832 832 2544
WIRE 1904 832 1904 2480
WIRE 832 2544 1904 2480
